data/ENWL/enwl_kron_reduced/network_22/Feeder_2/Lines.txt
! Imported from Lines.txt, with modified linecodes
! ------------------------------------------------------------------------------------------
New Line.LINE0 Bus1=sourcebus.1.2.3 Bus2=1.1.2.3 phases=3 Linecode=LC4 Length=1 Units=m
New Line.LINE1 Bus1=1.1.2.3 Bus2=2.1.2.3 phases=3 Linecode=LC4 Length=0.64982 Units=m
New Line.LINE2 Bus1=2.1.2.3 Bus2=3.1.2.3 phases=3 Linecode=LC4 Length=0.086833 Units=m
New Line.LINE3 Bus1=3.1.2.3 Bus2=4.1.2.3 phases=3 Linecode=LC4 Length=0.081057 Units=m
New Line.LINE4 Bus1=4.1.2.3 Bus2=5.1.2.3 phases=3 Linecode=LC4 Length=0.078644 Units=m
New Line.LINE5 Bus1=5.1.2.3 Bus2=6.1.2.3 phases=3 Linecode=LC4 Length=0.092114 Units=m
New Line.LINE6 Bus1=6.1.2.3 Bus2=7.1.2.3 phases=3 Linecode=LC4 Length=0.10293 Units=m
New Line.LINE7 Bus1=7.1.2.3 Bus2=8.1.2.3 phases=3 Linecode=LC4 Length=0.07642 Units=m
New Line.LINE8 Bus1=8.1.2.3 Bus2=9.1.2.3 phases=3 Linecode=LC4 Length=0.089022 Units=m
New Line.LINE9 Bus1=9.1.2.3 Bus2=10.1.2.3 phases=3 Linecode=LC4 Length=0.089006 Units=m
New Line.LINE10 Bus1=10.1.2.3 Bus2=11.1.2.3 phases=3 Linecode=LC4 Length=0.088233 Units=m
New Line.LINE11 Bus1=11.1.2.3 Bus2=12.1.2.3 phases=3 Linecode=LC4 Length=2.2501 Units=m
New Line.LINE12 Bus1=12.1.2.3 Bus2=13.1.2.3 phases=3 Linecode=LC4 Length=0.4097 Units=m
New Line.LINE13 Bus1=13.1.2.3 Bus2=14.1.2.3 phases=3 Linecode=LC4 Length=6.3514 Units=m
New Line.LINE14 Bus1=14.1.2.3 Bus2=15.1.2.3 phases=3 Linecode=LC4 Length=1.0838 Units=m
New Line.LINE15 Bus1=15.1.2.3 Bus2=16.1.2.3 phases=3 Linecode=LC4 Length=1.0543 Units=m
New Line.LINE16 Bus1=16.1.2.3 Bus2=17.1.2.3 phases=3 Linecode=LC4 Length=0.19039 Units=m
New Line.LINE17 Bus1=17.1.2.3 Bus2=18.1.2.3 phases=3 Linecode=LC4 Length=0.22643 Units=m
New Line.LINE18 Bus1=18.1.2.3 Bus2=19.1.2.3 phases=3 Linecode=LC4 Length=0.41544 Units=m
New Line.LINE19 Bus1=19.1.2.3 Bus2=20.1.2.3 phases=3 Linecode=LC4 Length=1.4301 Units=m
New Line.LINE20 Bus1=20.1.2.3 Bus2=21.1.2.3 phases=3 Linecode=LC4 Length=0.19116 Units=m
New Line.LINE21 Bus1=21.1.2.3 Bus2=22.1.2.3 phases=3 Linecode=LC4 Length=5.2355 Units=m
New Line.LINE22 Bus1=22.1.2.3 Bus2=23.1.2.3 phases=3 Linecode=LC4 Length=0.29618 Units=m
New Line.LINE23 Bus1=23.1.2.3 Bus2=24.1.2.3 phases=3 Linecode=LC4 Length=0.29618 Units=m
New Line.LINE24 Bus1=24.1.2.3 Bus2=25.1.2.3 phases=3 Linecode=LC4 Length=0.22322 Units=m
New Line.LINE25 Bus1=25.1.2.3 Bus2=26.1.2.3 phases=3 Linecode=LC4 Length=0.19039 Units=m
New Line.LINE26 Bus1=26.1.2.3 Bus2=27.1.2.3 phases=3 Linecode=LC4 Length=0.31046 Units=m
New Line.LINE27 Bus1=27.1.2.3 Bus2=28.1.2.3 phases=3 Linecode=LC4 Length=0.39001 Units=m
New Line.LINE28 Bus1=28.1.2.3 Bus2=29.1.2.3 phases=3 Linecode=LC4 Length=0.49024 Units=m
New Line.LINE29 Bus1=29.1.2.3 Bus2=30.1.2.3 phases=3 Linecode=LC4 Length=0.33911 Units=m
New Line.LINE30 Bus1=30.1.2.3 Bus2=31.1.2.3 phases=3 Linecode=LC4 Length=0.35287 Units=m
New Line.LINE31 Bus1=31.1.2.3 Bus2=32.1.2.3 phases=3 Linecode=LC4 Length=0.61821 Units=m
New Line.LINE32 Bus1=32.1.2.3 Bus2=33.1.2.3 phases=3 Linecode=LC4 Length=0.50557 Units=m
New Line.LINE33 Bus1=33.1.2.3 Bus2=34.1.2.3 phases=3 Linecode=LC4 Length=0.79244 Units=m
New Line.LINE34 Bus1=34.1.2.3 Bus2=35.1.2.3 phases=3 Linecode=LC4 Length=9.1357 Units=m
New Line.LINE35 Bus1=35.1.2.3 Bus2=36.1.2.3 phases=3 Linecode=LC4 Length=10.5725 Units=m
New Line.LINE36 Bus1=36.1.2.3 Bus2=37.1.2.3 phases=3 Linecode=LC4 Length=6.0202 Units=m
New Line.LINE37 Bus1=37.1.2.3 Bus2=38.1.2.3 phases=3 Linecode=LC4 Length=0.28247 Units=m
New Line.LINE38 Bus1=38.1.2.3 Bus2=39.1.2.3 phases=3 Linecode=LC4 Length=0.26631 Units=m
New Line.LINE39 Bus1=39.1.2.3 Bus2=40.1.2.3 phases=3 Linecode=LC4 Length=0.35419 Units=m
New Line.LINE40 Bus1=40.1.2.3 Bus2=41.1.2.3 phases=3 Linecode=LC4 Length=0.17903 Units=m
New Line.LINE41 Bus1=41.1.2.3 Bus2=42.1.2.3 phases=3 Linecode=LC4 Length=0.20435 Units=m
New Line.LINE42 Bus1=42.1.2.3 Bus2=43.1.2.3 phases=3 Linecode=LC4 Length=0.19948 Units=m
New Line.LINE43 Bus1=43.1.2.3 Bus2=44.1.2.3 phases=3 Linecode=LC4 Length=4.2327 Units=m
New Line.LINE44 Bus1=44.1.2.3 Bus2=45.1.2.3 phases=3 Linecode=LC4 Length=7.1377 Units=m
New Line.LINE45 Bus1=45.1.2.3 Bus2=46.1.2.3 phases=3 Linecode=LC4 Length=0.85738 Units=m
New Line.LINE46 Bus1=46.1.2.3 Bus2=47.1.2.3 phases=3 Linecode=LC4 Length=0.18566 Units=m
New Line.LINE47 Bus1=47.1.2.3 Bus2=48.1.2.3 phases=3 Linecode=LC4 Length=0.20674 Units=m
New Line.LINE48 Bus1=48.1.2.3 Bus2=49.1.2.3 phases=3 Linecode=LC4 Length=0.207 Units=m
New Line.LINE49 Bus1=49.1.2.3 Bus2=50.1.2.3 phases=3 Linecode=LC4 Length=0.34442 Units=m
New Line.LINE50 Bus1=50.1.2.3 Bus2=51.1.2.3 phases=3 Linecode=LC4 Length=0.28338 Units=m
New Line.LINE51 Bus1=51.1.2.3 Bus2=52.1.2.3 phases=3 Linecode=LC4 Length=0.31292 Units=m
New Line.LINE52 Bus1=52.1.2.3 Bus2=53.1.2.3 phases=3 Linecode=LC4 Length=0.42814 Units=m
New Line.LINE53 Bus1=53.1.2.3 Bus2=54.1.2.3 phases=3 Linecode=LC4 Length=5.6163 Units=m
New Line.LINE54 Bus1=54.1.2.3 Bus2=55.1.2.3 phases=3 Linecode=LC4 Length=3.5223 Units=m
New Line.LINE55 Bus1=54.1.2.3 Bus2=56.1.2.3 phases=3 Linecode=LC6 Length=0.13445 Units=m
New Line.LINE56 Bus1=55.1.2.3 Bus2=57.1.2.3 phases=3 Linecode=LC4 Length=5.2953 Units=m
New Line.LINE57 Bus1=56.1.2.3 Bus2=58.1.2.3 phases=3 Linecode=LC6 Length=0.085288 Units=m
New Line.LINE58 Bus1=57.1.2.3 Bus2=59.1.2.3 phases=3 Linecode=LC4 Length=5.2963 Units=m
New Line.LINE59 Bus1=58.1.2.3 Bus2=60.1.2.3 phases=3 Linecode=LC6 Length=0.2001 Units=m
New Line.LINE60 Bus1=59.1.2.3 Bus2=61.1.2.3 phases=3 Linecode=LC4 Length=7.5403 Units=m
New Line.LINE61 Bus1=59.1.2.3 Bus2=62.1.2.3 phases=3 Linecode=LC6 Length=0.32648 Units=m
New Line.LINE62 Bus1=60.1.2.3 Bus2=63.1.2.3 phases=3 Linecode=LC6 Length=0.88977 Units=m
New Line.LINE63 Bus1=61.1.2.3 Bus2=64.1.2.3 phases=3 Linecode=LC4 Length=3.0577 Units=m
New Line.LINE64 Bus1=62.1.2.3 Bus2=65.1.2.3 phases=3 Linecode=LC6 Length=0.18047 Units=m
New Line.LINE65 Bus1=63.1.2.3 Bus2=66.1.2.3 phases=3 Linecode=LC6 Length=0.276 Units=m
New Line.LINE66 Bus1=64.1.2.3 Bus2=67.1.2.3 phases=3 Linecode=LC4 Length=3.2719 Units=m
New Line.LINE67 Bus1=64.1.2.3 Bus2=68.1.2.3 phases=3 Linecode=LC6 Length=0.78479 Units=m
New Line.LINE68 Bus1=65.1.2.3 Bus2=69.1.2.3 phases=3 Linecode=LC6 Length=0.21514 Units=m
New Line.LINE69 Bus1=66.1.2.3 Bus2=70.1.2.3 phases=3 Linecode=LC6 Length=0.135 Units=m
New Line.LINE70 Bus1=67.1.2.3 Bus2=71.1.2.3 phases=3 Linecode=LC4 Length=3.0611 Units=m
New Line.LINE71 Bus1=68.1.2.3 Bus2=72.1.2.3 phases=3 Linecode=LC6 Length=0.26648 Units=m
New Line.LINE72 Bus1=69.1.2.3 Bus2=73.1.2.3 phases=3 Linecode=LC6 Length=0.17734 Units=m
New Line.LINE73 Bus1=70.1.2.3 Bus2=74.1.2.3 phases=3 Linecode=LC6 Length=0.17021 Units=m
New Line.LINE74 Bus1=71.1.2.3 Bus2=75.1.2.3 phases=3 Linecode=LC5 Length=3.6788 Units=m
New Line.LINE75 Bus1=72.1.2.3 Bus2=76.1.2.3 phases=3 Linecode=LC6 Length=0.44722 Units=m
New Line.LINE76 Bus1=73.1.2.3 Bus2=77.1.2.3 phases=3 Linecode=LC6 Length=1.5553 Units=m
New Line.LINE77 Bus1=74.1.2.3 Bus2=78.1.2.3 phases=3 Linecode=LC6 Length=0.15591 Units=m
New Line.LINE78 Bus1=75.1.2.3 Bus2=79.1.2.3 phases=3 Linecode=LC5 Length=4.747 Units=m
New Line.LINE79 Bus1=76.1.2.3 Bus2=80.1.2.3 phases=3 Linecode=LC6 Length=0.26058 Units=m
New Line.LINE80 Bus1=77.1.2.3 Bus2=81.1.2.3 phases=3 Linecode=LC6 Length=0.1287 Units=m
New Line.LINE81 Bus1=78.1.2.3 Bus2=82.1.2.3 phases=3 Linecode=LC6 Length=0.16542 Units=m
New Line.LINE82 Bus1=79.1.2.3 Bus2=83.1.2.3 phases=3 Linecode=LC5 Length=3.0835 Units=m
New Line.LINE83 Bus1=80.1.2.3 Bus2=84.1.2.3 phases=3 Linecode=LC6 Length=0.26883 Units=m
New Line.LINE84 Bus1=81.1.2.3 Bus2=85.1.2.3 phases=3 Linecode=LC6 Length=0.061523 Units=m
New Line.LINE85 Bus1=82.1.2.3 Bus2=86.1.2.3 phases=3 Linecode=LC6 Length=0.13813 Units=m
New Line.LINE86 Bus1=83.1.2.3 Bus2=87.1.2.3 phases=3 Linecode=LC5 Length=5.0789 Units=m
New Line.LINE87 Bus1=84.1.2.3 Bus2=88.1.2.3 phases=3 Linecode=LC6 Length=0.2905 Units=m
New Line.LINE88 Bus1=85.1.2.3 Bus2=89.1.2.3 phases=3 Linecode=LC6 Length=0.065192 Units=m
New Line.LINE89 Bus1=86.1.2.3 Bus2=90.1.2.3 phases=3 Linecode=LC6 Length=0.14837 Units=m
New Line.LINE90 Bus1=87.1.2.3 Bus2=91.1.2.3 phases=3 Linecode=LC5 Length=1.9352 Units=m
New Line.LINE91 Bus1=88.1.2.3 Bus2=92.1.2.3 phases=3 Linecode=LC6 Length=0.22717 Units=m
New Line.LINE92 Bus1=89.1.2.3 Bus2=93.1.2.3 phases=3 Linecode=LC6 Length=0.37755 Units=m
New Line.LINE93 Bus1=90.1.2.3 Bus2=94.1.2.3 phases=3 Linecode=LC6 Length=0.22697 Units=m
New Line.LINE94 Bus1=91.1.2.3 Bus2=95.1.2.3 phases=3 Linecode=LC5 Length=7.7453 Units=m
New Line.LINE95 Bus1=91.1.2.3 Bus2=96.1.2.3 phases=3 Linecode=LC6 Length=0.31395 Units=m
New Line.LINE96 Bus1=92.1.2.3 Bus2=97.1.2.3 phases=3 Linecode=LC6 Length=0.3324 Units=m
New Line.LINE97 Bus1=93.1.2.3 Bus2=98.1.2.3 phases=3 Linecode=LC6 Length=0.60269 Units=m
New Line.LINE98 Bus1=94.1.2.3 Bus2=99.1.2.3 phases=3 Linecode=LC6 Length=0.21312 Units=m
New Line.LINE99 Bus1=95.1.2.3 Bus2=100.1.2.3 phases=3 Linecode=LC5 Length=6.4014 Units=m
New Line.LINE100 Bus1=96.1.2.3 Bus2=101.1.2.3 phases=3 Linecode=LC6 Length=0.18087 Units=m
New Line.LINE101 Bus1=97.1.2.3 Bus2=102.1.2.3 phases=3 Linecode=LC6 Length=0.34537 Units=m
New Line.LINE102 Bus1=99.1.2.3 Bus2=103.1.2.3 phases=3 Linecode=LC6 Length=0.72863 Units=m
New Line.LINE103 Bus1=100.1.2.3 Bus2=104.1.2.3 phases=3 Linecode=LC5 Length=1.0107 Units=m
New Line.LINE104 Bus1=101.1.2.3 Bus2=105.1.2.3 phases=3 Linecode=LC6 Length=0.37139 Units=m
New Line.LINE105 Bus1=102.1.2.3 Bus2=106.1.2.3 phases=3 Linecode=LC6 Length=4.1398 Units=m
New Line.LINE106 Bus1=103.1.2.3 Bus2=107.1.2.3 phases=3 Linecode=LC6 Length=8.2669 Units=m
New Line.LINE107 Bus1=104.1.2.3 Bus2=108.1.2.3 phases=3 Linecode=LC5 Length=6.3639 Units=m
New Line.LINE108 Bus1=105.1.2.3 Bus2=109.1.2.3 phases=3 Linecode=LC6 Length=0.35751 Units=m
New Line.LINE109 Bus1=106.1.2.3 Bus2=110.1.2.3 phases=3 Linecode=LC6 Length=0.58865 Units=m
New Line.LINE110 Bus1=107.1.2.3 Bus2=111.1.2.3 phases=3 Linecode=LC6 Length=0.34616 Units=m
New Line.LINE111 Bus1=108.1.2.3 Bus2=112.1.2.3 phases=3 Linecode=LC5 Length=3.6817 Units=m
New Line.LINE112 Bus1=109.1.2.3 Bus2=113.1.2.3 phases=3 Linecode=LC6 Length=8.7185 Units=m
New Line.LINE113 Bus1=110.1.2.3 Bus2=114.1.2.3 phases=3 Linecode=LC6 Length=0.40597 Units=m
New Line.LINE114 Bus1=111.1.2.3 Bus2=115.1.2.3 phases=3 Linecode=LC6 Length=0.17503 Units=m
New Line.LINE115 Bus1=112.1.2.3 Bus2=116.1.2.3 phases=3 Linecode=LC6 Length=0.42889 Units=m
New Line.LINE116 Bus1=112.1.2.3 Bus2=117.1.2.3 phases=3 Linecode=LC5 Length=3.6826 Units=m
New Line.LINE117 Bus1=113.1.2.3 Bus2=118.1.2.3 phases=3 Linecode=LC6 Length=1.8985 Units=m
New Line.LINE118 Bus1=114.1.2.3 Bus2=119.1.2.3 phases=3 Linecode=LC6 Length=0.5187 Units=m
New Line.LINE119 Bus1=115.1.2.3 Bus2=120.1.2.3 phases=3 Linecode=LC6 Length=0.17791 Units=m
New Line.LINE120 Bus1=116.1.2.3 Bus2=121.1.2.3 phases=3 Linecode=LC6 Length=0.1967 Units=m
New Line.LINE121 Bus1=117.1.2.3 Bus2=122.1.2.3 phases=3 Linecode=LC5 Length=6.8994 Units=m
New Line.LINE122 Bus1=118.1.2.3 Bus2=123.1.2.3 phases=3 Linecode=LC6 Length=0.22983 Units=m
New Line.LINE123 Bus1=119.1.2.3 Bus2=124.1.2.3 phases=3 Linecode=LC6 Length=1.4219 Units=m
New Line.LINE124 Bus1=120.1.2.3 Bus2=125.1.2.3 phases=3 Linecode=LC6 Length=1.5762 Units=m
New Line.LINE125 Bus1=121.1.2.3 Bus2=126.1.2.3 phases=3 Linecode=LC6 Length=0.30081 Units=m
New Line.LINE126 Bus1=122.1.2.3 Bus2=127.1.2.3 phases=3 Linecode=LC5 Length=5.4832 Units=m
New Line.LINE127 Bus1=123.1.2.3 Bus2=128.1.2.3 phases=3 Linecode=LC6 Length=0.19602 Units=m
New Line.LINE128 Bus1=124.1.2.3 Bus2=129.1.2.3 phases=3 Linecode=LC6 Length=0.62816 Units=m
New Line.LINE129 Bus1=125.1.2.3 Bus2=130.1.2.3 phases=3 Linecode=LC6 Length=0.16033 Units=m
New Line.LINE130 Bus1=126.1.2.3 Bus2=131.1.2.3 phases=3 Linecode=LC6 Length=0.1956 Units=m
New Line.LINE131 Bus1=127.1.2.3 Bus2=132.1.2.3 phases=3 Linecode=LC5 Length=9.9235 Units=m
New Line.LINE132 Bus1=128.1.2.3 Bus2=133.1.2.3 phases=3 Linecode=LC6 Length=0.28827 Units=m
New Line.LINE133 Bus1=129.1.2.3 Bus2=134.1.2.3 phases=3 Linecode=LC6 Length=0.50319 Units=m
New Line.LINE134 Bus1=130.1.2.3 Bus2=135.1.2.3 phases=3 Linecode=LC6 Length=0.13829 Units=m
New Line.LINE135 Bus1=131.1.2.3 Bus2=136.1.2.3 phases=3 Linecode=LC6 Length=0.44338 Units=m
New Line.LINE136 Bus1=132.1.2.3 Bus2=137.1.2.3 phases=3 Linecode=LC5 Length=1.7358 Units=m
New Line.LINE137 Bus1=133.1.2.3 Bus2=138.1.2.3 phases=3 Linecode=LC6 Length=1.1471 Units=m
New Line.LINE138 Bus1=134.1.2.3 Bus2=139.1.2.3 phases=3 Linecode=LC6 Length=0.61309 Units=m
New Line.LINE139 Bus1=135.1.2.3 Bus2=140.1.2.3 phases=3 Linecode=LC6 Length=0.23071 Units=m
New Line.LINE140 Bus1=136.1.2.3 Bus2=141.1.2.3 phases=3 Linecode=LC6 Length=5.5445 Units=m
New Line.LINE141 Bus1=137.1.2.3 Bus2=142.1.2.3 phases=3 Linecode=LC5 Length=1.1498 Units=m
New Line.LINE142 Bus1=138.1.2.3 Bus2=143.1.2.3 phases=3 Linecode=LC6 Length=3.9994 Units=m
New Line.LINE143 Bus1=138.1.2.3 Bus2=144.1.2.3 phases=3 Linecode=LC6 Length=3.4704 Units=m
New Line.LINE144 Bus1=139.1.2.3 Bus2=145.1.2.3 phases=3 Linecode=LC6 Length=0.096462 Units=m
New Line.LINE145 Bus1=140.1.2.3 Bus2=146.1.2.3 phases=3 Linecode=LC6 Length=3.628 Units=m
New Line.LINE146 Bus1=141.1.2.3 Bus2=147.1.2.3 phases=3 Linecode=LC6 Length=4.3679 Units=m
New Line.LINE147 Bus1=142.1.2.3 Bus2=148.1.2.3 phases=3 Linecode=LC6 Length=0.25086 Units=m
New Line.LINE148 Bus1=142.1.2.3 Bus2=149.1.2.3 phases=3 Linecode=LC5 Length=1.8264 Units=m
New Line.LINE149 Bus1=143.1.2.3 Bus2=150.1.2.3 phases=3 Linecode=LC6 Length=4.211 Units=m
New Line.LINE150 Bus1=145.1.2.3 Bus2=151.1.2.3 phases=3 Linecode=LC6 Length=2.6601 Units=m
New Line.LINE151 Bus1=146.1.2.3 Bus2=152.1.2.3 phases=3 Linecode=LC6 Length=0.123 Units=m
New Line.LINE152 Bus1=147.1.2.3 Bus2=153.1.2.3 phases=3 Linecode=LC6 Length=0.27874 Units=m
New Line.LINE153 Bus1=148.1.2.3 Bus2=154.1.2.3 phases=3 Linecode=LC6 Length=0.29382 Units=m
New Line.LINE154 Bus1=149.1.2.3 Bus2=155.1.2.3 phases=3 Linecode=LC5 Length=2.5492 Units=m
New Line.LINE155 Bus1=151.1.2.3 Bus2=156.1.2.3 phases=3 Linecode=LC6 Length=0.17314 Units=m
New Line.LINE156 Bus1=152.1.2.3 Bus2=157.1.2.3 phases=3 Linecode=LC6 Length=0.10685 Units=m
New Line.LINE157 Bus1=153.1.2.3 Bus2=158.1.2.3 phases=3 Linecode=LC6 Length=0.26017 Units=m
New Line.LINE158 Bus1=154.1.2.3 Bus2=159.1.2.3 phases=3 Linecode=LC6 Length=0.29968 Units=m
New Line.LINE159 Bus1=155.1.2.3 Bus2=160.1.2.3 phases=3 Linecode=LC5 Length=2.9473 Units=m
New Line.LINE160 Bus1=156.1.2.3 Bus2=161.1.2.3 phases=3 Linecode=LC6 Length=0.18213 Units=m
New Line.LINE161 Bus1=157.1.2.3 Bus2=162.1.2.3 phases=3 Linecode=LC6 Length=0.11045 Units=m
New Line.LINE162 Bus1=158.1.2.3 Bus2=163.1.2.3 phases=3 Linecode=LC6 Length=0.23678 Units=m
New Line.LINE163 Bus1=159.1.2.3 Bus2=164.1.2.3 phases=3 Linecode=LC6 Length=0.38204 Units=m
New Line.LINE164 Bus1=160.1.2.3 Bus2=165.1.2.3 phases=3 Linecode=LC5 Length=1.9043 Units=m
New Line.LINE165 Bus1=161.1.2.3 Bus2=166.1.2.3 phases=3 Linecode=LC6 Length=0.14612 Units=m
New Line.LINE166 Bus1=162.1.2.3 Bus2=167.1.2.3 phases=3 Linecode=LC6 Length=0.12851 Units=m
New Line.LINE167 Bus1=163.1.2.3 Bus2=168.1.2.3 phases=3 Linecode=LC6 Length=1.082 Units=m
New Line.LINE168 Bus1=164.1.2.3 Bus2=169.1.2.3 phases=3 Linecode=LC6 Length=0.41076 Units=m
New Line.LINE169 Bus1=165.1.2.3 Bus2=170.1.2.3 phases=3 Linecode=LC5 Length=2.0346 Units=m
New Line.LINE170 Bus1=166.1.2.3 Bus2=171.1.2.3 phases=3 Linecode=LC6 Length=0.71004 Units=m
New Line.LINE171 Bus1=167.1.2.3 Bus2=172.1.2.3 phases=3 Linecode=LC6 Length=0.16719 Units=m
New Line.LINE172 Bus1=168.1.2.3 Bus2=173.1.2.3 phases=3 Linecode=LC6 Length=2.53 Units=m
New Line.LINE173 Bus1=168.1.2.3 Bus2=174.1.2.3 phases=3 Linecode=LC6 Length=6.6174 Units=m
New Line.LINE174 Bus1=169.1.2.3 Bus2=175.1.2.3 phases=3 Linecode=LC6 Length=0.43534 Units=m
New Line.LINE175 Bus1=170.1.2.3 Bus2=176.1.2.3 phases=3 Linecode=LC5 Length=1.5548 Units=m
New Line.LINE176 Bus1=171.1.2.3 Bus2=177.1.2.3 phases=3 Linecode=LC6 Length=1.4536 Units=m
New Line.LINE177 Bus1=171.1.2.3 Bus2=178.1.2.3 phases=3 Linecode=LC6 Length=4.3457 Units=m
New Line.LINE178 Bus1=172.1.2.3 Bus2=179.1.2.3 phases=3 Linecode=LC6 Length=0.769 Units=m
New Line.LINE179 Bus1=173.1.2.3 Bus2=180.1.2.3 phases=3 Linecode=LC6 Length=1.016 Units=m
New Line.LINE180 Bus1=175.1.2.3 Bus2=181.1.2.3 phases=3 Linecode=LC6 Length=0.28878 Units=m
New Line.LINE181 Bus1=176.1.2.3 Bus2=182.1.2.3 phases=3 Linecode=LC5 Length=1.8481 Units=m
New Line.LINE182 Bus1=177.1.2.3 Bus2=183.1.2.3 phases=3 Linecode=LC6 Length=3.8104 Units=m
New Line.LINE183 Bus1=179.1.2.3 Bus2=184.1.2.3 phases=3 Linecode=LC6 Length=3.5876 Units=m
New Line.LINE184 Bus1=179.1.2.3 Bus2=185.1.2.3 phases=3 Linecode=LC6 Length=4.1486 Units=m
New Line.LINE185 Bus1=180.1.2.3 Bus2=186.1.2.3 phases=3 Linecode=LC6 Length=5.7691 Units=m
New Line.LINE186 Bus1=181.1.2.3 Bus2=187.1.2.3 phases=3 Linecode=LC6 Length=0.28939 Units=m
New Line.LINE187 Bus1=182.1.2.3 Bus2=188.1.2.3 phases=3 Linecode=LC5 Length=3.6643 Units=m
New Line.LINE188 Bus1=184.1.2.3 Bus2=189.1.2.3 phases=3 Linecode=LC6 Length=5.4504 Units=m
New Line.LINE189 Bus1=187.1.2.3 Bus2=190.1.2.3 phases=3 Linecode=LC6 Length=9.0367 Units=m
New Line.LINE190 Bus1=188.1.2.3 Bus2=191.1.2.3 phases=3 Linecode=LC5 Length=3.663 Units=m
New Line.LINE191 Bus1=190.1.2.3 Bus2=192.1.2.3 phases=3 Linecode=LC6 Length=0.28541 Units=m
New Line.LINE192 Bus1=190.1.2.3 Bus2=193.1.2.3 phases=3 Linecode=LC6 Length=6.2932 Units=m
New Line.LINE193 Bus1=191.1.2.3 Bus2=194.1.2.3 phases=3 Linecode=LC5 Length=2.6528 Units=m
New Line.LINE194 Bus1=192.1.2.3 Bus2=195.1.2.3 phases=3 Linecode=LC6 Length=0.326 Units=m
New Line.LINE195 Bus1=193.1.2.3 Bus2=196.1.2.3 phases=3 Linecode=LC6 Length=0.27424 Units=m
New Line.LINE196 Bus1=194.1.2.3 Bus2=197.1.2.3 phases=3 Linecode=LC6 Length=0.60407 Units=m
New Line.LINE197 Bus1=194.1.2.3 Bus2=198.1.2.3 phases=3 Linecode=LC5 Length=1.1068 Units=m
New Line.LINE198 Bus1=195.1.2.3 Bus2=199.1.2.3 phases=3 Linecode=LC6 Length=0.35183 Units=m
New Line.LINE199 Bus1=196.1.2.3 Bus2=200.1.2.3 phases=3 Linecode=LC6 Length=0.191 Units=m
New Line.LINE200 Bus1=197.1.2.3 Bus2=201.1.2.3 phases=3 Linecode=LC6 Length=0.49539 Units=m
New Line.LINE201 Bus1=198.1.2.3 Bus2=202.1.2.3 phases=3 Linecode=LC5 Length=6.6329 Units=m
New Line.LINE202 Bus1=199.1.2.3 Bus2=203.1.2.3 phases=3 Linecode=LC6 Length=0.3958 Units=m
New Line.LINE203 Bus1=200.1.2.3 Bus2=204.1.2.3 phases=3 Linecode=LC6 Length=0.162 Units=m
New Line.LINE204 Bus1=201.1.2.3 Bus2=205.1.2.3 phases=3 Linecode=LC6 Length=0.33 Units=m
New Line.LINE205 Bus1=202.1.2.3 Bus2=206.1.2.3 phases=3 Linecode=LC5 Length=3.3507 Units=m
New Line.LINE206 Bus1=203.1.2.3 Bus2=207.1.2.3 phases=3 Linecode=LC6 Length=0.51215 Units=m
New Line.LINE207 Bus1=204.1.2.3 Bus2=208.1.2.3 phases=3 Linecode=LC6 Length=0.23308 Units=m
New Line.LINE208 Bus1=205.1.2.3 Bus2=209.1.2.3 phases=3 Linecode=LC6 Length=0.26422 Units=m
New Line.LINE209 Bus1=206.1.2.3 Bus2=210.1.2.3 phases=3 Linecode=LC5 Length=0.19991 Units=m
New Line.LINE210 Bus1=207.1.2.3 Bus2=211.1.2.3 phases=3 Linecode=LC6 Length=1.1146 Units=m
New Line.LINE211 Bus1=208.1.2.3 Bus2=212.1.2.3 phases=3 Linecode=LC6 Length=0.16674 Units=m
New Line.LINE212 Bus1=209.1.2.3 Bus2=213.1.2.3 phases=3 Linecode=LC6 Length=0.54122 Units=m
New Line.LINE213 Bus1=210.1.2.3 Bus2=214.1.2.3 phases=3 Linecode=LC5 Length=0.33933 Units=m
New Line.LINE214 Bus1=210.1.2.3 Bus2=215.1.2.3 phases=3 Linecode=LC6 Length=0.13104 Units=m
New Line.LINE215 Bus1=211.1.2.3 Bus2=216.1.2.3 phases=3 Linecode=LC6 Length=5.8529 Units=m
New Line.LINE216 Bus1=212.1.2.3 Bus2=217.1.2.3 phases=3 Linecode=LC6 Length=4.9449 Units=m
New Line.LINE217 Bus1=213.1.2.3 Bus2=218.1.2.3 phases=3 Linecode=LC6 Length=6.9459 Units=m
New Line.LINE218 Bus1=214.1.2.3 Bus2=219.1.2.3 phases=3 Linecode=LC5 Length=0.20566 Units=m
New Line.LINE219 Bus1=215.1.2.3 Bus2=220.1.2.3 phases=3 Linecode=LC6 Length=0.21775 Units=m
New Line.LINE220 Bus1=218.1.2.3 Bus2=221.1.2.3 phases=3 Linecode=LC6 Length=10.0067 Units=m
New Line.LINE221 Bus1=219.1.2.3 Bus2=222.1.2.3 phases=3 Linecode=LC5 Length=0.14911 Units=m
New Line.LINE222 Bus1=220.1.2.3 Bus2=223.1.2.3 phases=3 Linecode=LC6 Length=0.35024 Units=m
New Line.LINE223 Bus1=221.1.2.3 Bus2=224.1.2.3 phases=3 Linecode=LC6 Length=0.37882 Units=m
New Line.LINE224 Bus1=222.1.2.3 Bus2=225.1.2.3 phases=3 Linecode=LC5 Length=0.34991 Units=m
New Line.LINE225 Bus1=223.1.2.3 Bus2=226.1.2.3 phases=3 Linecode=LC6 Length=0.327 Units=m
New Line.LINE226 Bus1=224.1.2.3 Bus2=227.1.2.3 phases=3 Linecode=LC6 Length=0.19188 Units=m
New Line.LINE227 Bus1=225.1.2.3 Bus2=228.1.2.3 phases=3 Linecode=LC5 Length=0.3423 Units=m
New Line.LINE228 Bus1=226.1.2.3 Bus2=229.1.2.3 phases=3 Linecode=LC6 Length=0.29197 Units=m
New Line.LINE229 Bus1=227.1.2.3 Bus2=230.1.2.3 phases=3 Linecode=LC6 Length=0.172 Units=m
New Line.LINE230 Bus1=228.1.2.3 Bus2=231.1.2.3 phases=3 Linecode=LC5 Length=0.09825 Units=m
New Line.LINE231 Bus1=229.1.2.3 Bus2=232.1.2.3 phases=3 Linecode=LC6 Length=0.29715 Units=m
New Line.LINE232 Bus1=230.1.2.3 Bus2=233.1.2.3 phases=3 Linecode=LC6 Length=0.20893 Units=m
New Line.LINE233 Bus1=231.1.2.3 Bus2=234.1.2.3 phases=3 Linecode=LC5 Length=0.10742 Units=m
New Line.LINE234 Bus1=232.1.2.3 Bus2=235.1.2.3 phases=3 Linecode=LC6 Length=0.84317 Units=m
New Line.LINE235 Bus1=233.1.2.3 Bus2=236.1.2.3 phases=3 Linecode=LC6 Length=0.26699 Units=m
New Line.LINE236 Bus1=234.1.2.3 Bus2=237.1.2.3 phases=3 Linecode=LC5 Length=0.095635 Units=m
New Line.LINE237 Bus1=235.1.2.3 Bus2=238.1.2.3 phases=3 Linecode=LC6 Length=7.0826 Units=m
New Line.LINE238 Bus1=236.1.2.3 Bus2=239.1.2.3 phases=3 Linecode=LC6 Length=6.4653 Units=m
New Line.LINE239 Bus1=237.1.2.3 Bus2=240.1.2.3 phases=3 Linecode=LC5 Length=0.30154 Units=m
New Line.LINE240 Bus1=238.1.2.3 Bus2=241.1.2.3 phases=3 Linecode=LC6 Length=1.2304 Units=m
New Line.LINE241 Bus1=241.1.2.3 Bus2=242.1.2.3 phases=3 Linecode=LC6 Length=0.6318 Units=m
New Line.LINE242 Bus1=242.1.2.3 Bus2=243.1.2.3 phases=3 Linecode=LC6 Length=0.2905 Units=m
New Line.LINE243 Bus1=243.1.2.3 Bus2=244.1.2.3 phases=3 Linecode=LC6 Length=0.32523 Units=m
New Line.LINE244 Bus1=244.1.2.3 Bus2=245.1.2.3 phases=3 Linecode=LC6 Length=0.27222 Units=m
New Line.LINE245 Bus1=245.1.2.3 Bus2=246.1.2.3 phases=3 Linecode=LC6 Length=0.23838 Units=m
New Line.LINE246 Bus1=246.1.2.3 Bus2=247.1.2.3 phases=3 Linecode=LC6 Length=0.20745 Units=m
New Line.LINE247 Bus1=247.1.2.3 Bus2=248.1.2.3 phases=3 Linecode=LC6 Length=0.16528 Units=m
New Line.LINE248 Bus1=248.1.2.3 Bus2=249.1.2.3 phases=3 Linecode=LC6 Length=3.7365 Units=m
New Line.LINE249 Bus1=248.1.2.3 Bus2=250.1.2.3 phases=3 Linecode=LC6 Length=6.2956 Units=m
New Line.LINE250 Bus1=249.1.2.3 Bus2=251.1.2.3 phases=3 Linecode=LC6 Length=4.8024 Units=m
! ------------------------------------------------------------------------------------------